  
       XFOIL         Version 6.97
  
 Calculated polar for: VisFoil - Sun Feb 28 13:17:04 2016              
  
 1 1 Reynolds number fixed          Mach number fixed         
  
 xtrf =   1.000 (top)        1.000 (bottom)  
 Mach =   0.100     Re =     1.398 e 6     Ncrit =   9.000
  
   alpha    CL        CD       CDp       CM     Top_Xtr  Bot_Xtr
  ------ -------- --------- --------- -------- -------- --------
   3.504   1.2000   0.00802   0.00329  -0.1476   0.3526   1.0000
